<?xml version="1.0" encoding="UTF-8"?>

<!-- generated on 2025-12-28T12:02:53.868997+05:30 by Eclipse SUMO sumo 1.25.0
<sumoConfiguration xmlns:xsi="http://www.w3.org/2001/XMLSchema-instance" xsi:noNamespaceSchemaLocation="http://sumo.dlr.de/xsd/sumoConfiguration.xsd">

    <input>
        <net-file value="/mnt/Windows-SSD/Users/yvavi/yeet/coding/projects/delhi/Code-Slayer-FDRL-Traffic/vegha/Server/coldplay/osm_tls.net.xml.gz"/>
        <route-files value="/mnt/Windows-SSD/Users/yvavi/yeet/coding/projects/delhi/Code-Slayer-FDRL-Traffic/vegha/Server/coldplay/   osm.passenger.trips_scaled.xml,/mnt/Windows-SSD/Users/yvavi/yeet/coding/projects/delhi/Code-Slayer-FDRL-Traffic/vegha/Server/coldplay/   osm.motorcycle.trips_scaled.xml,/mnt/Windows-SSD/Users/yvavi/yeet/coding/projects/delhi/Code-Slayer-FDRL-Traffic/vegha/Server/coldplay/   osm.bus.trips_scaled.xml,/mnt/Windows-SSD/Users/yvavi/yeet/coding/projects/delhi/Code-Slayer-FDRL-Traffic/vegha/Server/coldplay/   osm.truck.trips_scaled.xml"/>
        <additional-files value="/mnt/Windows-SSD/Users/yvavi/yeet/coding/projects/delhi/Code-Slayer-FDRL-Traffic/vegha/Server/coldplay/osm.poly.xml.gz,/mnt/Windows-SSD/Users/yvavi/yeet/coding/projects/delhi/Code-Slayer-FDRL-Traffic/vegha/Server/coldplay/output.add.xml,/mnt/Windows-SSD/Users/yvavi/yeet/coding/projects/delhi/Code-Slayer-FDRL-Traffic/vegha/Server/coldplay/rl_traffic_lights.add.xml"/>
    </input>

    <output>
        <tripinfo-output value="/mnt/Windows-SSD/Users/yvavi/yeet/coding/projects/delhi/Code-Slayer-FDRL-Traffic/vegha/Server/coldplay/tripinfos.xml"/>
        <statistic-output value="/mnt/Windows-SSD/Users/yvavi/yeet/coding/projects/delhi/Code-Slayer-FDRL-Traffic/vegha/Server/coldplay/stats.xml"/>
    </output>

    <time>
        <step-length value="1"/>
    </time>

    <processing>
        <ignore-route-errors value="true"/>
        <tls.actuated.jam-threshold value="30"/>
    </processing>

    <routing>
        <device.rerouting.adaptation-steps value="18"/>
        <device.rerouting.adaptation-interval value="10"/>
    </routing>

    <report>
        <verbose value="true"/>
        <no-warnings value="true"/>
        <duration-log.statistics value="true"/>
        <no-step-log value="true"/>
    </report>

    <traci_server>
        <remote-port value="36475"/>
    </traci_server>

    <gui_only>
        <gui-settings-file value="/mnt/Windows-SSD/Users/yvavi/yeet/coding/projects/delhi/Code-Slayer-FDRL-Traffic/vegha/Server/coldplay/osm.view.xml"/>
    </gui_only>

</sumoConfiguration>
-->

<tripinfos xmlns:xsi="http://www.w3.org/2001/XMLSchema-instance" xsi:noNamespaceSchemaLocation="http://sumo.dlr.de/xsd/tripinfo_file.xsd">
    <tripinfo id="motorcycle26" depart="28.00" departLane="423840850#0_0" departPos="2.30" departSpeed="0.00" departDelay="0.81" arrival="43.00" arrivalLane="787858368#1_0" arrivalPos="51.34" arrivalSpeed="10.22" duration="15.00" routeLength="127.74" waitingTime="0.00" waitingCount="0" stopTime="0.00" timeLoss="3.92" rerouteNo="1" devices="tripinfo_motorcycle26 routing_motorcycle26" vType="motorcycle_motorcycle" speedFactor="0.91" vaporized=""/>
    <tripinfo id="veh17" depart="9.00" departLane="1195576992#11_0" departPos="5.10" departSpeed="0.00" departDelay="0.11" arrival="83.00" arrivalLane="-1195576992#4_0" arrivalPos="0.13" arrivalSpeed="10.18" duration="74.00" routeLength="606.19" waitingTime="20.00" waitingCount="2" stopTime="0.00" timeLoss="39.80" rerouteNo="1" devices="tripinfo_veh17 routing_veh17" vType="veh_passenger" speedFactor="0.83" vaporized=""/>
    <tripinfo id="motorcycle24" depart="26.00" departLane="787945997_0" departPos="2.30" departSpeed="0.00" departDelay="0.90" arrival="84.00" arrivalLane="215089904#1_0" arrivalPos="29.87" arrivalSpeed="11.20" duration="58.00" routeLength="540.71" waitingTime="6.00" waitingCount="1" stopTime="0.00" timeLoss="18.50" rerouteNo="1" devices="tripinfo_motorcycle24 routing_motorcycle24" vType="motorcycle_motorcycle" speedFactor="0.91" vaporized=""/>
    <tripinfo id="motorcycle38" depart="40.00" departLane="1192595036#0_0" departPos="2.30" departSpeed="14.21" departDelay="0.27" arrival="91.00" arrivalLane="749128442#2_0" arrivalPos="16.69" arrivalSpeed="20.55" duration="51.00" routeLength="302.58" waitingTime="14.00" waitingCount="4" stopTime="0.00" timeLoss="31.60" rerouteNo="1" devices="tripinfo_motorcycle38 routing_motorcycle38" vType="motorcycle_motorcycle" speedFactor="1.02" vaporized=""/>
    <tripinfo id="veh13" depart="7.00" departLane="1431978404#0_0" departPos="5.10" departSpeed="0.00" departDelay="0.20" arrival="98.00" arrivalLane="708292171_0" arrivalPos="75.43" arrivalSpeed="20.95" duration="91.00" routeLength="556.65" waitingTime="22.00" waitingCount="3" stopTime="0.00" timeLoss="53.34" rerouteNo="1" devices="tripinfo_veh13 routing_veh13" vType="veh_passenger" speedFactor="1.03" vaporized=""/>
    <tripinfo id="veh45" depart="24.00" departLane="566962241_0" departPos="5.10" departSpeed="23.80" departDelay="0.47" arrival="99.00" arrivalLane="-646210541#3_0" arrivalPos="182.51" arrivalSpeed="11.36" duration="75.00" routeLength="1036.30" waitingTime="2.00" waitingCount="1" stopTime="0.00" timeLoss="18.53" rerouteNo="1" devices="tripinfo_veh45 routing_veh45" vType="veh_passenger" speedFactor="0.86" vaporized=""/>
    <tripinfo id="veh115" depart="61.00" departLane="215089917#0_0" departPos="5.10" departSpeed="0.00" departDelay="0.87" arrival="103.00" arrivalLane="215090078#1_0" arrivalPos="41.51" arrivalSpeed="13.59" duration="42.00" routeLength="432.22" waitingTime="0.00" waitingCount="0" stopTime="0.00" timeLoss="10.94" rerouteNo="1" devices="tripinfo_veh115 routing_veh115" vType="veh_passenger" speedFactor="1.02" vaporized=""/>
    <tripinfo id="motorcycle79" depart="83.00" departLane="-151770988#0_0" departPos="2.30" departSpeed="0.00" departDelay="0.39" arrival="107.00" arrivalLane="659857898#2_0" arrivalPos="117.96" arrivalSpeed="11.78" duration="24.00" routeLength="204.23" waitingTime="0.00" waitingCount="0" stopTime="0.00" timeLoss="6.96" rerouteNo="1" devices="tripinfo_motorcycle79 routing_motorcycle79" vType="motorcycle_motorcycle" speedFactor="0.96" vaporized=""/>
    <tripinfo id="veh26" depart="14.00" departLane="215225848_0" departPos="5.10" departSpeed="0.00" departDelay="0.41" arrival="109.00" arrivalLane="-1431976930#1_0" arrivalPos="17.75" arrivalSpeed="10.76" duration="95.00" routeLength="706.63" waitingTime="20.00" waitingCount="3" stopTime="0.00" timeLoss="52.17" rerouteNo="1" devices="tripinfo_veh26 routing_veh26" vType="veh_passenger" speedFactor="0.89" vaporized=""/>
    <tripinfo id="motorcycle8" depart="9.00" departLane="-646210541#4_0" departPos="2.30" departSpeed="0.00" departDelay="0.63" arrival="111.00" arrivalLane="-151770988#6_0" arrivalPos="35.25" arrivalSpeed="13.59" duration="102.00" routeLength="1013.98" waitingTime="7.00" waitingCount="4" stopTime="0.00" timeLoss="41.87" rerouteNo="1" devices="tripinfo_motorcycle8 routing_motorcycle8" vType="motorcycle_motorcycle" speedFactor="1.02" vaporized=""/>
    <tripinfo id="truck13" depart="34.00" departLane="-1178096191_0" departPos="7.20" departSpeed="13.99" departDelay="0.02" arrival="120.00" arrivalLane="646210541#4_0" arrivalPos="26.64" arrivalSpeed="8.48" duration="86.00" routeLength="949.30" waitingTime="0.00" waitingCount="0" stopTime="0.00" timeLoss="41.30" rerouteNo="1" devices="tripinfo_truck13 routing_truck13" vType="truck_truck" speedFactor="1.01" vaporized=""/>
    <tripinfo id="veh83" depart="44.00" departLane="746615675#6_0" departPos="5.10" departSpeed="0.00" departDelay="0.61" arrival="123.00" arrivalLane="1305503506_0" arrivalPos="18.19" arrivalSpeed="11.92" duration="79.00" routeLength="573.60" waitingTime="14.00" waitingCount="3" stopTime="0.00" timeLoss="38.85" rerouteNo="1" devices="tripinfo_veh83 routing_veh83" vType="veh_passenger" speedFactor="0.88" vaporized=""/>
    <tripinfo id="motorcycle14" depart="15.00" departLane="571283261#4_1" departPos="2.30" departSpeed="0.00" departDelay="0.36" arrival="127.00" arrivalLane="-566962242#6_0" arrivalPos="17.58" arrivalSpeed="10.81" duration="112.00" routeLength="1453.46" waitingTime="9.00" waitingCount="2" stopTime="0.00" timeLoss="38.49" rerouteNo="1" devices="tripinfo_motorcycle14 routing_motorcycle14" vType="motorcycle_motorcycle" speedFactor="0.94" vaporized=""/>
    <tripinfo id="veh29" depart="16.00" departLane="-215090045#0_0" departPos="5.10" departSpeed="0.00" departDelay="0.84" arrival="134.00" arrivalLane="31017890#2_2" arrivalPos="36.33" arrivalSpeed="22.88" duration="118.00" routeLength="828.71" waitingTime="30.00" waitingCount="4" stopTime="0.00" timeLoss="74.98" rerouteNo="1" devices="tripinfo_veh29 routing_veh29" vType="veh_passenger" speedFactor="0.94" vaporized=""/>
    <tripinfo id="motorcycle29" depart="31.00" departLane="-1431976928#0_0" departPos="2.30" departSpeed="0.00" departDelay="0.68" arrival="137.00" arrivalLane="215090070#1_0" arrivalPos="58.65" arrivalSpeed="13.18" duration="106.00" routeLength="834.91" waitingTime="33.00" waitingCount="4" stopTime="0.00" timeLoss="55.67" rerouteNo="1" devices="tripinfo_motorcycle29 routing_motorcycle29" vType="motorcycle_motorcycle" speedFactor="1.04" vaporized=""/>
    <tripinfo id="motorcycle96" depart="101.00" departLane="-215089945_0" departPos="2.30" departSpeed="0.00" departDelay="0.62" arrival="138.00" arrivalLane="749128442#3_0" arrivalPos="12.59" arrivalSpeed="11.07" duration="37.00" routeLength="288.60" waitingTime="4.00" waitingCount="1" stopTime="0.00" timeLoss="19.13" rerouteNo="1" devices="tripinfo_motorcycle96 routing_motorcycle96" vType="motorcycle_motorcycle" speedFactor="0.98" vaporized=""/>
    <tripinfo id="motorcycle13" depart="14.00" departLane="-1195576992#10_0" departPos="2.30" departSpeed="0.00" departDelay="0.41" arrival="141.00" arrivalLane="749128442#4_0" arrivalPos="43.64" arrivalSpeed="19.87" duration="127.00" routeLength="1075.48" waitingTime="38.00" waitingCount="4" stopTime="0.00" timeLoss="75.90" rerouteNo="1" devices="tripinfo_motorcycle13 routing_motorcycle13" vType="motorcycle_motorcycle" speedFactor="0.99" vaporized=""/>
    <tripinfo id="motorcycle6" depart="7.00" departLane="1431976931_0" departPos="2.30" departSpeed="0.00" departDelay="0.73" arrival="147.00" arrivalLane="415046264_0" arrivalPos="17.70" arrivalSpeed="11.69" duration="140.00" routeLength="855.22" waitingTime="26.00" waitingCount="6" stopTime="0.00" timeLoss="91.82" rerouteNo="1" devices="tripinfo_motorcycle6 routing_motorcycle6" vType="motorcycle_motorcycle" speedFactor="1.12" vaporized=""/>
    <tripinfo id="veh64" depart="34.00" departLane="151770988#6_0" departPos="5.10" departSpeed="0.00" departDelay="0.54" arrival="156.00" arrivalLane="31017890#2_0" arrivalPos="36.33" arrivalSpeed="30.73" duration="122.00" routeLength="1671.95" waitingTime="6.00" waitingCount="2" stopTime="0.00" timeLoss="49.19" rerouteNo="1" devices="tripinfo_veh64 routing_veh64" vType="veh_passenger" speedFactor="1.12" vaporized=""/>
    <tripinfo id="truck1" depart="3.00" departLane="-1206809261#1_0" departPos="7.10" departSpeed="0.00" departDelay="0.39" arrival="162.00" arrivalLane="-659857898#1_0" arrivalPos="10.56" arrivalSpeed="10.83" duration="159.00" routeLength="1340.23" waitingTime="19.00" waitingCount="5" stopTime="0.00" timeLoss="85.87" rerouteNo="1" devices="tripinfo_truck1 routing_truck1" vType="truck_truck" speedFactor="1.01" vaporized=""/>
    <tripinfo id="veh3" depart="2.00" departLane="-215089911#0_0" departPos="5.10" departSpeed="0.00" departDelay="0.43" arrival="164.00" arrivalLane="-1160006921#0_0" arrivalPos="235.13" arrivalSpeed="22.50" duration="162.00" routeLength="1444.87" waitingTime="47.00" waitingCount="3" stopTime="0.00" timeLoss="101.85" rerouteNo="1" devices="tripinfo_veh3 routing_veh3" vType="veh_passenger" speedFactor="1.06" vaporized=""/>
    <tripinfo id="veh172" depart="90.00" departLane="1164686618#0_0" departPos="5.10" departSpeed="37.42" departDelay="0.07" arrival="166.00" arrivalLane="376927932#0_0" arrivalPos="133.19" arrivalSpeed="19.91" duration="76.00" routeLength="993.97" waitingTime="14.00" waitingCount="2" stopTime="0.00" timeLoss="32.95" rerouteNo="1" devices="tripinfo_veh172 routing_veh172" vType="veh_passenger" speedFactor="0.95" vaporized=""/>
    <tripinfo id="motorcycle47" depart="50.00" departLane="566962242#9_0" departPos="2.30" departSpeed="0.00" departDelay="0.85" arrival="169.00" arrivalLane="31017880#0_0" arrivalPos="128.02" arrivalSpeed="18.59" duration="119.00" routeLength="1011.66" waitingTime="24.00" waitingCount="4" stopTime="0.00" timeLoss="68.11" rerouteNo="1" devices="tripinfo_motorcycle47 routing_motorcycle47" vType="motorcycle_motorcycle" speedFactor="0.94" vaporized=""/>
    <tripinfo id="motorcycle100" depart="105.00" departLane="-215089976#0_0" departPos="2.30" departSpeed="0.00" departDelay="0.43" arrival="173.00" arrivalLane="-31017880#5_0" arrivalPos="18.78" arrivalSpeed="9.18" duration="68.00" routeLength="390.10" waitingTime="8.00" waitingCount="2" stopTime="0.00" timeLoss="43.63" rerouteNo="1" devices="tripinfo_motorcycle100 routing_motorcycle100" vType="motorcycle_motorcycle" speedFactor="1.01" vaporized=""/>
    <tripinfo id="motorcycle22" depart="23.00" departLane="215089908#1_0" departPos="2.30" departSpeed="0.00" departDelay="0.00" arrival="177.00" arrivalLane="-749128442#1_0" arrivalPos="33.39" arrivalSpeed="18.21" duration="154.00" routeLength="1024.53" waitingTime="52.00" waitingCount="5" stopTime="0.00" timeLoss="88.76" rerouteNo="1" devices="tripinfo_motorcycle22 routing_motorcycle22" vType="motorcycle_motorcycle" speedFactor="0.88" vaporized=""/>
    <tripinfo id="veh141" depart="74.00" departLane="1190740105_0" departPos="5.10" departSpeed="2.71" departDelay="0.28" arrival="190.00" arrivalLane="1217688135#2_0" arrivalPos="105.97" arrivalSpeed="21.50" duration="116.00" routeLength="1372.46" waitingTime="5.00" waitingCount="1" stopTime="0.00" timeLoss="36.93" rerouteNo="1" devices="tripinfo_veh141 routing_veh141" vType="veh_passenger" speedFactor="0.97" vaporized=""/>
    <tripinfo id="veh226" depart="119.00" departLane="-1431976930#1_0" departPos="5.10" departSpeed="0.00" departDelay="0.84" arrival="201.00" arrivalLane="-1431976931_0" arrivalPos="53.12" arrivalSpeed="12.22" duration="82.00" routeLength="604.51" waitingTime="14.00" waitingCount="3" stopTime="0.00" timeLoss="35.35" rerouteNo="1" devices="tripinfo_veh226 routing_veh226" vType="veh_passenger" speedFactor="0.97" vaporized=""/>
    <tripinfo id="bus13" depart="23.00" departLane="-646210541#1_0" departPos="12.10" departSpeed="0.00" departDelay="0.34" arrival="203.00" arrivalLane="-215090078#0_0" arrivalPos="119.56" arrivalSpeed="13.34" duration="180.00" routeLength="1560.48" waitingTime="25.00" waitingCount="4" stopTime="0.00" timeLoss="100.81" rerouteNo="1" devices="tripinfo_bus13 routing_bus13" vType="bus_bus" speedFactor="1.00" vaporized=""/>
    <tripinfo id="veh235" depart="123.00" departLane="1305503506_0" departPos="5.10" departSpeed="0.00" departDelay="0.14" arrival="206.00" arrivalLane="646210542#3_0" arrivalPos="18.80" arrivalSpeed="31.11" duration="83.00" routeLength="1092.25" waitingTime="4.00" waitingCount="2" stopTime="0.00" timeLoss="42.46" rerouteNo="1" devices="tripinfo_veh235 routing_veh235" vType="veh_passenger" speedFactor="1.18" vaporized=""/>
    <tripinfo id="veh53" depart="28.00" departLane="151770988#3_0" departPos="5.10" departSpeed="0.00" departDelay="0.29" arrival="208.00" arrivalLane="707832926#9_0" arrivalPos="77.56" arrivalSpeed="22.14" duration="180.00" routeLength="2269.67" waitingTime="31.00" waitingCount="4" stopTime="0.00" timeLoss="78.02" rerouteNo="1" devices="tripinfo_veh53 routing_veh53" vType="veh_passenger" speedFactor="1.03" vaporized=""/>
    <tripinfo id="motorcycle147" depart="154.00" departLane="-31017880#2_0" departPos="2.30" departSpeed="0.00" departDelay="0.29" arrival="220.00" arrivalLane="1154579502_0" arrivalPos="29.24" arrivalSpeed="12.18" duration="66.00" routeLength="646.19" waitingTime="10.00" waitingCount="2" stopTime="0.00" timeLoss="34.29" rerouteNo="1" devices="tripinfo_motorcycle147 routing_motorcycle147" vType="motorcycle_motorcycle" speedFactor="1.02" vaporized=""/>
    <tripinfo id="veh100" depart="53.00" departLane="646210542#6_0" departPos="5.10" departSpeed="0.00" departDelay="0.72" arrival="222.00" arrivalLane="215089968_0" arrivalPos="87.23" arrivalSpeed="1.66" duration="169.00" routeLength="1263.64" waitingTime="22.00" waitingCount="3" stopTime="0.00" timeLoss="75.98" rerouteNo="1" devices="tripinfo_veh100 routing_veh100" vType="veh_passenger" speedFactor="0.94" vaporized=""/>
    <tripinfo id="veh4" depart="3.00" departLane="825118129#3_0" departPos="5.10" departSpeed="0.00" departDelay="0.91" arrival="224.00" arrivalLane="415062368_0" arrivalPos="64.33" arrivalSpeed="13.82" duration="221.00" routeLength="1548.89" waitingTime="92.00" waitingCount="4" stopTime="0.00" timeLoss="151.01" rerouteNo="1" devices="tripinfo_veh4 routing_veh4" vType="veh_passenger" speedFactor="1.08" vaporized=""/>
    <tripinfo id="truck23" depart="61.00" departLane="31017896#1_0" departPos="7.20" departSpeed="0.00" departDelay="0.87" arrival="225.00" arrivalLane="1178096191_0" arrivalPos="54.81" arrivalSpeed="11.02" duration="164.00" routeLength="983.43" waitingTime="50.00" waitingCount="4" stopTime="0.00" timeLoss="117.75" rerouteNo="1" devices="tripinfo_truck23 routing_truck23" vType="truck_truck" speedFactor="0.96" vaporized=""/>
    <tripinfo id="motorcycle181" depart="190.00" departLane="-215089904#4_0" departPos="2.30" departSpeed="0.00" departDelay="0.74" arrival="228.00" arrivalLane="825118129#4_0" arrivalPos="85.51" arrivalSpeed="24.03" duration="38.00" routeLength="352.31" waitingTime="7.00" waitingCount="1" stopTime="0.00" timeLoss="19.13" rerouteNo="1" devices="tripinfo_motorcycle181 routing_motorcycle181" vType="motorcycle_motorcycle" speedFactor="1.12" vaporized=""/>
    <tripinfo id="truck16" depart="42.00" departLane="-31017880#0_0" departPos="7.20" departSpeed="0.00" departDelay="0.17" arrival="233.00" arrivalLane="1175896817_0" arrivalPos="84.74" arrivalSpeed="13.67" duration="191.00" routeLength="1321.87" waitingTime="33.00" waitingCount="5" stopTime="0.00" timeLoss="122.98" rerouteNo="1" devices="tripinfo_truck16 routing_truck16" vType="truck_truck" speedFactor="1.03" vaporized=""/>
    <tripinfo id="veh220" depart="116.00" departLane="151770986_1" departPos="5.10" departSpeed="0.00" departDelay="0.98" arrival="234.00" arrivalLane="-215089916#3_0" arrivalPos="40.87" arrivalSpeed="13.66" duration="118.00" routeLength="928.04" waitingTime="15.00" waitingCount="3" stopTime="0.00" timeLoss="58.65" rerouteNo="1" devices="tripinfo_veh220 routing_veh220" vType="veh_passenger" speedFactor="0.99" vaporized=""/>
    <tripinfo id="veh166" depart="87.00" departLane="-787945997_0" departPos="5.10" departSpeed="0.00" departDelay="0.21" arrival="238.00" arrivalLane="646210541#4_0" arrivalPos="26.64" arrivalSpeed="10.97" duration="151.00" routeLength="1550.18" waitingTime="16.00" waitingCount="4" stopTime="0.00" timeLoss="69.16" rerouteNo="1" devices="tripinfo_veh166 routing_veh166" vType="veh_passenger" speedFactor="0.92" vaporized=""/>
    <tripinfo id="truck4" depart="11.00" departLane="-415062374_0" departPos="7.20" departSpeed="13.56" departDelay="0.54" arrival="239.00" arrivalLane="361760637_0" arrivalPos="8.67" arrivalSpeed="10.54" duration="228.00" routeLength="2161.44" waitingTime="71.00" waitingCount="4" stopTime="0.00" timeLoss="133.84" rerouteNo="1" devices="tripinfo_truck4 routing_truck4" vType="truck_truck" speedFactor="0.98" vaporized=""/>
    <tripinfo id="motorcycle171" depart="179.00" departLane="708292171_0" departPos="2.30" departSpeed="0.00" departDelay="0.19" arrival="247.00" arrivalLane="-1190739880#1_0" arrivalPos="22.19" arrivalSpeed="2.75" duration="68.00" routeLength="889.87" waitingTime="0.00" waitingCount="0" stopTime="0.00" timeLoss="20.19" rerouteNo="1" devices="tripinfo_motorcycle171 routing_motorcycle171" vType="motorcycle_motorcycle" speedFactor="1.06" vaporized=""/>
    <tripinfo id="bus26" depart="46.00" departLane="566888436#0_2" departPos="12.10" departSpeed="0.00" departDelay="0.69" arrival="248.00" arrivalLane="1121976097#0_0" arrivalPos="23.52" arrivalSpeed="9.43" duration="202.00" routeLength="1614.22" waitingTime="49.00" waitingCount="4" stopTime="0.00" timeLoss="128.66" rerouteNo="1" devices="tripinfo_bus26 routing_bus26" vType="bus_bus" speedFactor="1.00" vaporized=""/>
    <tripinfo id="veh326" depart="171.00" departLane="749128442#1_0" departPos="5.10" departSpeed="0.00" departDelay="0.56" arrival="249.00" arrivalLane="588859419#3_0" arrivalPos="117.60" arrivalSpeed="18.25" duration="78.00" routeLength="753.19" waitingTime="7.00" waitingCount="1" stopTime="0.00" timeLoss="33.38" rerouteNo="1" devices="tripinfo_veh326 routing_veh326" vType="veh_passenger" speedFactor="0.85" vaporized=""/>
    <tripinfo id="motorcycle108" depart="113.00" departLane="-1431978404#3_0" departPos="2.30" departSpeed="0.00" departDelay="0.07" arrival="250.00" arrivalLane="215090078#1_0" arrivalPos="41.51" arrivalSpeed="12.16" duration="137.00" routeLength="792.48" waitingTime="58.00" waitingCount="7" stopTime="0.00" timeLoss="93.18" rerouteNo="1" devices="tripinfo_motorcycle108 routing_motorcycle108" vType="motorcycle_motorcycle" speedFactor="1.00" vaporized=""/>
    <tripinfo id="veh210" depart="110.00" departLane="703914561#0_0" departPos="5.10" departSpeed="0.00" departDelay="0.21" arrival="252.00" arrivalLane="31017880#2_0" arrivalPos="79.74" arrivalSpeed="22.13" duration="142.00" routeLength="1356.29" waitingTime="15.00" waitingCount="3" stopTime="0.00" timeLoss="72.87" rerouteNo="1" devices="tripinfo_veh210 routing_veh210" vType="veh_passenger" speedFactor="1.01" vaporized=""/>
    <tripinfo id="veh193" depart="101.00" departLane="-215089904#6_0" departPos="5.10" departSpeed="0.00" departDelay="0.09" arrival="254.00" arrivalLane="646210542#2_0" arrivalPos="75.23" arrivalSpeed="22.75" duration="153.00" routeLength="1050.24" waitingTime="48.00" waitingCount="4" stopTime="0.00" timeLoss="109.03" rerouteNo="1" devices="tripinfo_veh193 routing_veh193" vType="veh_passenger" speedFactor="1.13" vaporized=""/>
    <tripinfo id="motorcycle208" depart="218.00" departLane="215089904#6_0" departPos="2.30" departSpeed="0.00" departDelay="0.50" arrival="255.00" arrivalLane="-749128442#4_0" arrivalPos="43.64" arrivalSpeed="23.17" duration="37.00" routeLength="332.48" waitingTime="10.00" waitingCount="1" stopTime="0.00" timeLoss="19.92" rerouteNo="1" devices="tripinfo_motorcycle208 routing_motorcycle208" vType="motorcycle_motorcycle" speedFactor="1.07" vaporized=""/>
    <tripinfo id="motorcycle187" depart="196.00" departLane="-1190741184_0" departPos="2.30" departSpeed="15.24" departDelay="0.46" arrival="256.00" arrivalLane="-215090017#0_0" arrivalPos="155.18" arrivalSpeed="14.91" duration="60.00" routeLength="404.86" waitingTime="22.00" waitingCount="1" stopTime="0.00" timeLoss="33.59" rerouteNo="1" devices="tripinfo_motorcycle187 routing_motorcycle187" vType="motorcycle_motorcycle" speedFactor="1.10" vaporized=""/>
    <tripinfo id="truck7" depart="19.00" departLane="-1431976930#1_0" departPos="7.20" departSpeed="0.00" departDelay="0.70" arrival="266.00" arrivalLane="-151770988#4_0" arrivalPos="29.11" arrivalSpeed="7.59" duration="247.00" routeLength="1628.73" waitingTime="39.00" waitingCount="9" stopTime="0.00" timeLoss="164.78" rerouteNo="1" devices="tripinfo_truck7 routing_truck7" vType="truck_truck" speedFactor="1.04" vaporized=""/>
    <tripinfo id="veh244" depart="128.00" departLane="31017896#1_0" departPos="5.10" departSpeed="0.00" departDelay="0.43" arrival="267.00" arrivalLane="827899848_0" arrivalPos="37.40" arrivalSpeed="11.22" duration="139.00" routeLength="1325.37" waitingTime="32.00" waitingCount="4" stopTime="0.00" timeLoss="72.37" rerouteNo="1" devices="tripinfo_veh244 routing_veh244" vType="veh_passenger" speedFactor="0.90" vaporized=""/>
    <tripinfo id="motorcycle128" depart="134.00" departLane="588859419#1_0" departPos="2.30" departSpeed="0.00" departDelay="0.16" arrival="268.00" arrivalLane="215090070#0_0" arrivalPos="9.39" arrivalSpeed="11.83" duration="134.00" routeLength="1102.77" waitingTime="37.00" waitingCount="4" stopTime="0.00" timeLoss="76.07" rerouteNo="1" devices="tripinfo_motorcycle128 routing_motorcycle128" vType="motorcycle_motorcycle" speedFactor="1.04" vaporized=""/>
    <tripinfo id="motorcycle156" depart="164.00" departLane="-588859419#3_0" departPos="2.30" departSpeed="0.00" departDelay="0.88" arrival="273.00" arrivalLane="566962242#0_0" arrivalPos="39.07" arrivalSpeed="10.78" duration="109.00" routeLength="721.07" waitingTime="24.00" waitingCount="5" stopTime="0.00" timeLoss="53.74" rerouteNo="1" devices="tripinfo_motorcycle156 routing_motorcycle156" vType="motorcycle_motorcycle" speedFactor="0.89" vaporized=""/>
    <tripinfo id="motorcycle111" depart="117.00" departLane="215090070#0_0" departPos="2.30" departSpeed="0.00" departDelay="0.93" arrival="275.00" arrivalLane="151770988#5_0" arrivalPos="18.68" arrivalSpeed="13.29" duration="158.00" routeLength="1648.75" waitingTime="24.00" waitingCount="6" stopTime="0.00" timeLoss="67.65" rerouteNo="1" devices="tripinfo_motorcycle111 routing_motorcycle111" vType="motorcycle_motorcycle" speedFactor="0.97" vaporized=""/>
    <tripinfo id="veh295" depart="156.00" departLane="-787858368#1_0" departPos="5.10" departSpeed="0.00" departDelay="1.77" arrival="277.00" arrivalLane="-1160006921#0_0" arrivalPos="235.13" arrivalSpeed="23.98" duration="121.00" routeLength="1201.91" waitingTime="10.00" waitingCount="2" stopTime="0.00" timeLoss="64.58" rerouteNo="1" devices="tripinfo_veh295 routing_veh295" vType="veh_passenger" speedFactor="1.09" vaporized=""/>
    <tripinfo id="veh262" depart="137.00" departLane="-749128442#0_0" departPos="5.10" departSpeed="0.00" departDelay="0.02" arrival="289.00" arrivalLane="31017896#0_0" arrivalPos="128.43" arrivalSpeed="25.24" duration="152.00" routeLength="1215.59" waitingTime="29.00" waitingCount="7" stopTime="0.00" timeLoss="98.19" rerouteNo="1" devices="tripinfo_veh262 routing_veh262" vType="veh_passenger" speedFactor="1.04" vaporized=""/>
    <tripinfo id="motorcycle118" depart="124.00" departLane="215089976#0_0" departPos="2.30" departSpeed="0.00" departDelay="0.61" arrival="290.00" arrivalLane="-151770988#0_0" arrivalPos="54.40" arrivalSpeed="11.44" duration="166.00" routeLength="1558.98" waitingTime="39.00" waitingCount="5" stopTime="0.00" timeLoss="76.16" rerouteNo="1" devices="tripinfo_motorcycle118 routing_motorcycle118" vType="motorcycle_motorcycle" speedFactor="0.98" vaporized=""/>
    <tripinfo id="motorcycle189" depart="198.00" departLane="235957078#0_0" departPos="2.30" departSpeed="0.00" departDelay="0.37" arrival="290.00" arrivalLane="-215089916#3_0" arrivalPos="40.87" arrivalSpeed="7.75" duration="92.00" routeLength="701.30" waitingTime="18.00" waitingCount="5" stopTime="0.00" timeLoss="52.30" rerouteNo="1" devices="tripinfo_motorcycle189 routing_motorcycle189" vType="motorcycle_motorcycle" speedFactor="1.06" vaporized=""/>
    <tripinfo id="motorcycle192" depart="201.00" departLane="-806357169#0_0" departPos="2.30" departSpeed="0.00" departDelay="0.23" arrival="294.00" arrivalLane="-746615675#3_0" arrivalPos="197.22" arrivalSpeed="11.78" duration="93.00" routeLength="873.52" waitingTime="15.00" waitingCount="3" stopTime="0.00" timeLoss="34.92" rerouteNo="1" devices="tripinfo_motorcycle192 routing_motorcycle192" vType="motorcycle_motorcycle" speedFactor="0.96" vaporized=""/>
    <tripinfo id="truck43" depart="113.00" departLane="215089904#1_0" departPos="7.20" departSpeed="0.00" departDelay="0.59" arrival="294.00" arrivalLane="746615675#3_0" arrivalPos="202.28" arrivalSpeed="12.85" duration="181.00" routeLength="1409.40" waitingTime="47.00" waitingCount="2" stopTime="0.00" timeLoss="103.98" rerouteNo="1" devices="tripinfo_truck43 routing_truck43" vType="truck_truck" speedFactor="0.96" vaporized=""/>
    <tripinfo id="veh410" depart="218.00" departLane="1431978404#0_0" departPos="5.10" departSpeed="0.00" departDelay="3.64" arrival="294.00" arrivalLane="646210542#1_0" arrivalPos="48.26" arrivalSpeed="21.05" duration="76.00" routeLength="582.37" waitingTime="19.00" waitingCount="2" stopTime="0.00" timeLoss="52.75" rerouteNo="1" devices="tripinfo_veh410 routing_veh410" vType="veh_passenger" speedFactor="1.03" vaporized=""/>
    <tripinfo id="veh482" depart="252.00" departLane="-1431976928#0_0" departPos="5.10" departSpeed="0.00" departDelay="0.00" arrival="294.00" arrivalLane="-31017880#5_0" arrivalPos="18.78" arrivalSpeed="21.62" duration="42.00" routeLength="384.03" waitingTime="2.00" waitingCount="1" stopTime="0.00" timeLoss="18.62" rerouteNo="1" devices="tripinfo_veh482 routing_veh482" vType="veh_passenger" speedFactor="1.02" vaporized=""/>
    <tripinfo id="veh317" depart="166.00" departLane="31017896#0_0" departPos="5.10" departSpeed="0.00" departDelay="0.26" arrival="295.00" arrivalLane="707832926#9_0" arrivalPos="77.56" arrivalSpeed="19.03" duration="129.00" routeLength="1703.68" waitingTime="14.00" waitingCount="2" stopTime="0.00" timeLoss="47.01" rerouteNo="1" devices="tripinfo_veh317 routing_veh317" vType="veh_passenger" speedFactor="0.90" vaporized=""/>
    <tripinfo id="veh342" depart="179.00" departLane="746615675#5_0" departPos="5.10" departSpeed="0.00" departDelay="0.19" arrival="296.00" arrivalLane="-215090078#0_0" arrivalPos="119.56" arrivalSpeed="13.32" duration="117.00" routeLength="1486.26" waitingTime="4.00" waitingCount="1" stopTime="0.00" timeLoss="35.72" rerouteNo="1" devices="tripinfo_veh342 routing_veh342" vType="veh_passenger" speedFactor="1.02" vaporized=""/>